tests/fuzzer/corpus_json/05_radial_chain_20nodes.json
{
  "version": "1.0",
  "type": "input",
  "is_batch": false,
  "attributes": {},
  "data": {
    "node": [
      {
        "id": 0,
        "u_rated": 10000.0
      },
      {
        "id": 1,
        "u_rated": 10000.0
      },
      {
        "id": 2,
        "u_rated": 10000.0
      },
      {
        "id": 3,
        "u_rated": 10000.0
      },
      {
        "id": 4,
        "u_rated": 10000.0
      },
      {
        "id": 5,
        "u_rated": 10000.0
      },
      {
        "id": 6,
        "u_rated": 10000.0
      },
      {
        "id": 7,
        "u_rated": 10000.0
      },
      {
        "id": 8,
        "u_rated": 10000.0
      },
      {
        "id": 9,
        "u_rated": 10000.0
      },
      {
        "id": 10,
        "u_rated": 10000.0
      },
      {
        "id": 11,
        "u_rated": 10000.0
      },
      {
        "id": 12,
        "u_rated": 10000.0
      },
      {
        "id": 13,
        "u_rated": 10000.0
      },
      {
        "id": 14,
        "u_rated": 10000.0
      },
      {
        "id": 15,
        "u_rated": 10000.0
      },
      {
        "id": 16,
        "u_rated": 10000.0
      },
      {
        "id": 17,
        "u_rated": 10000.0
      },
      {
        "id": 18,
        "u_rated": 10000.0
      },
      {
        "id": 19,
        "u_rated": 10000.0
      }
    ],
    "source": [
      {
        "id": 20,
        "node": 0,
        "status": 1,
        "u_ref": 1.0,
        "u_ref_angle": 0.0,
        "sk": 10000000.0,
        "rx_ratio": 0.1,
        "z01_ratio": 1.0
      }
    ],
    "line": [
      {
        "id": 21,
        "from_node": 0,
        "to_node": 1,
        "from_status": 1,
        "to_status": 1,
        "r1": 0.1,
        "x1": 0.1,
        "c1": 1e-09,
        "tan1": 0.0,
        "r0": 0.3,
        "x0": 0.3,
        "c0": 1e-09,
        "tan0": 0.0,
        "i_n": 400.0
      },
      {
        "id": 22,
        "from_node": 1,
        "to_node": 2,
        "from_status": 1,
        "to_status": 1,
        "r1": 0.1,
        "x1": 0.1,
        "c1": 1e-09,
        "tan1": 0.0,
        "r0": 0.3,
        "x0": 0.3,
        "c0": 1e-09,
        "tan0": 0.0,
        "i_n": 400.0
      },
      {
        "id": 23,
        "from_node": 2,
        "to_node": 3,
        "from_status": 1,
        "to_status": 1,
        "r1": 0.1,
        "x1": 0.1,
        "c1": 1e-09,
        "tan1": 0.0,
        "r0": 0.3,
        "x0": 0.3,
        "c0": 1e-09,
        "tan0": 0.0,
        "i_n": 400.0
      },
      {
        "id": 24,
        "from_node": 3,
        "to_node": 4,
        "from_status": 1,
        "to_status": 1,
        "r1": 0.1,
        "x1": 0.1,
        "c1": 1e-09,
        "tan1": 0.0,
        "r0": 0.3,
        "x0": 0.3,
        "c0": 1e-09,
        "tan0": 0.0,
        "i_n": 400.0
      },
      {
        "id": 25,
        "from_node": 4,
        "to_node": 5,
        "from_status": 1,
        "to_status": 1,
        "r1": 0.1,
        "x1": 0.1,
        "c1": 1e-09,
        "tan1": 0.0,
        "r0": 0.3,
        "x0": 0.3,
        "c0": 1e-09,
        "tan0": 0.0,
        "i_n": 400.0
      },
      {
        "id": 26,
        "from_node": 5,
        "to_node": 6,
        "from_status": 1,
        "to_status": 1,
        "r1": 0.1,
        "x1": 0.1,
        "c1": 1e-09,
        "tan1": 0.0,
        "r0": 0.3,
        "x0": 0.3,
        "c0": 1e-09,
        "tan0": 0.0,
        "i_n": 400.0
      },
      {
        "id": 27,
        "from_node": 6,
        "to_node": 7,
        "from_status": 1,
        "to_status": 1,
        "r1": 0.1,
        "x1": 0.1,
        "c1": 1e-09,
        "tan1": 0.0,
        "r0": 0.3,
        "x0": 0.3,
        "c0": 1e-09,
        "tan0": 0.0,
        "i_n": 400.0
      },
      {
        "id": 28,
        "from_node": 7,
        "to_node": 8,
        "from_status": 1,
        "to_status": 1,
        "r1": 0.1,
        "x1": 0.1,
        "c1": 1e-09,
        "tan1": 0.0,
        "r0": 0.3,
        "x0": 0.3,
        "c0": 1e-09,
        "tan0": 0.0,
        "i_n": 400.0
      },
      {
        "id": 29,
        "from_node": 8,
        "to_node": 9,
        "from_status": 1,
        "to_status": 1,
        "r1": 0.1,
        "x1": 0.1,
        "c1": 1e-09,
        "tan1": 0.0,
        "r0": 0.3,
        "x0": 0.3,
        "c0": 1e-09,
        "tan0": 0.0,
        "i_n": 400.0
      },
      {
        "id": 30,
        "from_node": 9,
        "to_node": 10,
        "from_status": 1,
        "to_status": 1,
        "r1": 0.1,
        "x1": 0.1,
        "c1": 1e-09,
        "tan1": 0.0,
        "r0": 0.3,
        "x0": 0.3,
        "c0": 1e-09,
        "tan0": 0.0,
        "i_n": 400.0
      },
      {
        "id": 31,
        "from_node": 10,
        "to_node": 11,
        "from_status": 1,
        "to_status": 1,
        "r1": 0.1,
        "x1": 0.1,
        "c1": 1e-09,
        "tan1": 0.0,
        "r0": 0.3,
        "x0": 0.3,
        "c0": 1e-09,
        "tan0": 0.0,
        "i_n": 400.0
      },
      {
        "id": 32,
        "from_node": 11,
        "to_node": 12,
        "from_status": 1,
        "to_status": 1,
        "r1": 0.1,
        "x1": 0.1,
        "c1": 1e-09,
        "tan1": 0.0,
        "r0": 0.3,
        "x0": 0.3,
        "c0": 1e-09,
        "tan0": 0.0,
        "i_n": 400.0
      },
      {
        "id": 33,
        "from_node": 12,
        "to_node": 13,
        "from_status": 1,
        "to_status": 1,
        "r1": 0.1,
        "x1": 0.1,
        "c1": 1e-09,
        "tan1": 0.0,
        "r0": 0.3,
        "x0": 0.3,
        "c0": 1e-09,
        "tan0": 0.0,
        "i_n": 400.0
      },
      {
        "id": 34,
        "from_node": 13,
        "to_node": 14,
        "from_status": 1,
        "to_status": 1,
        "r1": 0.1,
        "x1": 0.1,
        "c1": 1e-09,
        "tan1": 0.0,
        "r0": 0.3,
        "x0": 0.3,
        "c0": 1e-09,
        "tan0": 0.0,
        "i_n": 400.0
      },
      {
        "id": 35,
        "from_node": 14,
        "to_node": 15,
        "from_status": 1,
        "to_status": 1,
        "r1": 0.1,
        "x1": 0.1,
        "c1": 1e-09,
        "tan1": 0.0,
        "r0": 0.3,
        "x0": 0.3,
        "c0": 1e-09,
        "tan0": 0.0,
        "i_n": 400.0
      },
      {
        "id": 36,
        "from_node": 15,
        "to_node": 16,
        "from_status": 1,
        "to_status": 1,
        "r1": 0.1,
        "x1": 0.1,
        "c1": 1e-09,
        "tan1": 0.0,
        "r0": 0.3,
        "x0": 0.3,
        "c0": 1e-09,
        "tan0": 0.0,
        "i_n": 400.0
      },
      {
        "id": 37,
        "from_node": 16,
        "to_node": 17,
        "from_status": 1,
        "to_status": 1,
        "r1": 0.1,
        "x1": 0.1,
        "c1": 1e-09,
        "tan1": 0.0,
        "r0": 0.3,
        "x0": 0.3,
        "c0": 1e-09,
        "tan0": 0.0,
        "i_n": 400.0
      },
      {
        "id": 38,
        "from_node": 17,
        "to_node": 18,
        "from_status": 1,
        "to_status": 1,
        "r1": 0.1,
        "x1": 0.1,
        "c1": 1e-09,
        "tan1": 0.0,
        "r0": 0.3,
        "x0": 0.3,
        "c0": 1e-09,
        "tan0": 0.0,
        "i_n": 400.0
      },
      {
        "id": 39,
        "from_node": 18,
        "to_node": 19,
        "from_status": 1,
        "to_status": 1,
        "r1": 0.1,
        "x1": 0.1,
        "c1": 1e-09,
        "tan1": 0.0,
        "r0": 0.3,
        "x0": 0.3,
        "c0": 1e-09,
        "tan0": 0.0,
        "i_n": 400.0
      }
    ],
    "sym_load": [
      {
        "id": 40,
        "node": 1,
        "status": 1,
        "type": 0,
        "p_specified": 1000.0,
        "q_specified": 500.0
      },
      {
        "id": 41,
        "node": 2,
        "status": 1,
        "type": 0,
        "p_specified": 1000.0,
        "q_specified": 500.0
      },
      {
        "id": 42,
        "node": 3,
        "status": 1,
        "type": 0,
        "p_specified": 1000.0,
        "q_specified": 500.0
      },
      {
        "id": 43,
        "node": 4,
        "status": 1,
        "type": 0,
        "p_specified": 1000.0,
        "q_specified": 500.0
      },
      {
        "id": 44,
        "node": 5,
        "status": 1,
        "type": 0,
        "p_specified": 1000.0,
        "q_specified": 500.0
      },
      {
        "id": 45,
        "node": 6,
        "status": 1,
        "type": 0,
        "p_specified": 1000.0,
        "q_specified": 500.0
      },
      {
        "id": 46,
        "node": 7,
        "status": 1,
        "type": 0,
        "p_specified": 1000.0,
        "q_specified": 500.0
      },
      {
        "id": 47,
        "node": 8,
        "status": 1,
        "type": 0,
        "p_specified": 1000.0,
        "q_specified": 500.0
      },
      {
        "id": 48,
        "node": 9,
        "status": 1,
        "type": 0,
        "p_specified": 1000.0,
        "q_specified": 500.0
      },
      {
        "id": 49,
        "node": 10,
        "status": 1,
        "type": 0,
        "p_specified": 1000.0,
        "q_specified": 500.0
      },
      {
        "id": 50,
        "node": 11,
        "status": 1,
        "type": 0,
        "p_specified": 1000.0,
        "q_specified": 500.0
      },
      {
        "id": 51,
        "node": 12,
        "status": 1,
        "type": 0,
        "p_specified": 1000.0,
        "q_specified": 500.0
      },
      {
        "id": 52,
        "node": 13,
        "status": 1,
        "type": 0,
        "p_specified": 1000.0,
        "q_specified": 500.0
      },
      {
        "id": 53,
        "node": 14,
        "status": 1,
        "type": 0,
        "p_specified": 1000.0,
        "q_specified": 500.0
      },
      {
        "id": 54,
        "node": 15,
        "status": 1,
        "type": 0,
        "p_specified": 1000.0,
        "q_specified": 500.0
      },
      {
        "id": 55,
        "node": 16,
        "status": 1,
        "type": 0,
        "p_specified": 1000.0,
        "q_specified": 500.0
      },
      {
        "id": 56,
        "node": 17,
        "status": 1,
        "type": 0,
        "p_specified": 1000.0,
        "q_specified": 500.0
      },
      {
        "id": 57,
        "node": 18,
        "status": 1,
        "type": 0,
        "p_specified": 1000.0,
        "q_specified": 500.0
      },
      {
        "id": 58,
        "node": 19,
        "status": 1,
        "type": 0,
        "p_specified": 1000.0,
        "q_specified": 500.0
      }
    ]
  }
}